"prog_tracers","ocean_mod","temp"
horizontal-advection-scheme = psom
vertical-advection-scheme = psom
restart_file  = ocean_temp_salt.res.nc
psom_limit=.true.
/
"prog_tracers","ocean_mod","salt"
horizontal-advection-scheme = psom
vertical-advection-scheme = psom
restart_file  = ocean_temp_salt.res.nc
psom_limit=.true.
/
